Version 4.1
SHEET 1 880 680
FLAG 176 128 1l
IOPIN 176 128 In
FLAG 176 160 2R
IOPIN 176 160 In
FLAG 176 192 3T
IOPIN 176 192 In
FLAG 176 224 4B
IOPIN 176 224 In
FLAG 224 128 5VL
IOPIN 224 128 Out
FLAG 224 160 6VR
IOPIN 224 160 Out
FLAG 224 192 7VT
IOPIN 224 192 Out
FLAG 224 224 8VB
IOPIN 224 224 Out
FLAG 176 256 00
IOPIN 176 256 BiDir
FLAG 0 0 00
IOPIN 0 0 BiDir
